tests/data/opendss_circuit_models/ckt7/ckt7_VLN_Node.txt

LINE-GROUND and LINE-LINE VOLTAGES BY BUS & NODE

Bus           Node    VLN (kV)   Angle      pu     Base kV    Node-Node   VLL (kV)  Angle      pu

SOURCEBUS ... 1       64.349 /_   -9.1   0.96918   115.000        1-2     111.46 /_   20.9   0.96922
   -          2       64.361 /_ -129.1   0.96936   115.000        2-3     111.49 /_  -99.1   0.96946
   -          3       64.365 /_  110.9   0.96942   115.000        3-1     111.47 /_  140.9   0.96928
CKT7 ........ 1        6.969 /_  -39.3   0.96798    12.470        1-2     12.069 /_   -9.3   0.96788
   -          2       6.9687 /_ -159.3   0.96793    12.470        2-3     12.072 /_ -129.3   0.96806
   -          3       6.9703 /_   80.7   0.96816    12.470        3-1     12.072 /_  110.7   0.96812
318405 ...... 1        6.969 /_  -39.3   0.96798    12.470        1-2     12.069 /_   -9.3   0.96788
   -          2       6.9687 /_ -159.3   0.96793    12.470        2-3     12.072 /_ -129.3   0.96806
   -          3       6.9703 /_   80.7   0.96816    12.470        3-1     12.072 /_  110.7   0.96812
318412 ...... 1        6.969 /_  -39.3   0.96798    12.470        1-2     12.069 /_   -9.3   0.96788
   -          2       6.9687 /_ -159.3   0.96793    12.470        2-3     12.072 /_ -129.3   0.96806
   -          3       6.9703 /_   80.7   0.96816    12.470        3-1     12.072 /_  110.7   0.96812
318414 ...... 1        6.969 /_  -39.3   0.96798    12.470        1-2     12.069 /_   -9.3   0.96788
   -          2       6.9687 /_ -159.3   0.96793    12.470        2-3     12.072 /_ -129.3   0.96806
   -          3       6.9703 /_   80.7   0.96816    12.470        3-1     12.072 /_  110.7   0.96812
157345 ...... 1       6.9603 /_  -39.5   0.96676    12.470        1-2     12.057 /_   -9.4    0.9669
   -          2       6.9647 /_ -159.4   0.96737    12.470        2-3     12.061 /_ -129.4    0.9672
   -          3       6.9626 /_   80.6   0.96708    12.470        3-1      12.06 /_  110.5   0.96712
157346 ...... 1       6.9603 /_  -39.5   0.96677    12.470        1-2     12.057 /_   -9.4    0.9669
   -          2       6.9647 /_ -159.4   0.96737    12.470        2-3     12.061 /_ -129.4    0.9672
   -          3       6.9626 /_   80.6   0.96709    12.470        3-1      12.06 /_  110.5   0.96712
165442 ...... 1       6.9601 /_  -39.5   0.96674    12.470        1-2     12.057 /_   -9.4   0.96688
   -          2       6.9646 /_ -159.4   0.96736    12.470        2-3     12.061 /_ -129.4   0.96718
   -          3       6.9624 /_   80.6   0.96705    12.470        3-1      12.06 /_  110.5    0.9671
298160 ...... 1       6.9522 /_  -39.7   0.96565    12.470        1-2     12.043 /_   -9.6   0.96579
   -          2         6.96 /_ -159.6   0.96673    12.470        2-3     12.049 /_ -129.6   0.96627
   -          3       6.9525 /_   80.4   0.96568    12.470        3-1     12.046 /_  110.4   0.96599
165448 ...... 1       6.9464 /_  -39.7   0.96484    12.470        1-2     12.034 /_   -9.7   0.96506
   -          2       6.9561 /_ -159.7   0.96618    12.470        2-3     12.041 /_ -129.7   0.96562
   -          3       6.9469 /_   80.3   0.96491    12.470        3-1     12.037 /_  110.3   0.96525
275354 ...... 1       6.9354 /_  -40.0   0.96331    12.470        1-2     12.015 /_   -9.9   0.96353
   -          2         6.95 /_ -159.9   0.96534    12.470        2-3     12.026 /_ -129.9   0.96436
   -          3       6.9327 /_   80.1   0.96293    12.470        3-1     12.017 /_  110.0   0.96369
165449 ...... 1       6.9346 /_  -40.1    0.9632    12.470        1-2     12.014 /_   -9.9   0.96341
   -          2       6.9496 /_ -159.9   0.96528    12.470        2-3     12.024 /_ -130.0   0.96427
   -          3       6.9316 /_   80.1   0.96278    12.470        3-1     12.016 /_  110.0   0.96358
165450 ...... 1       6.9346 /_  -40.1    0.9632    12.470        1-2     12.014 /_   -9.9   0.96341
   -          2       6.9496 /_ -159.9   0.96528    12.470        2-3     12.024 /_ -130.0   0.96427
   -          3       6.9316 /_   80.1   0.96278    12.470        3-1     12.016 /_  110.0   0.96358
165453 ...... 1       6.9308 /_  -40.1   0.96267    12.470        1-2     12.007 /_  -10.0   0.96287
   -          2       6.9469 /_ -159.9   0.96491    12.470        2-3     12.019 /_ -130.0    0.9638
   -          3        6.927 /_   80.0   0.96214    12.470        3-1     12.009 /_  109.9   0.96304
165454 ...... 1       6.9302 /_  -40.1   0.96259    12.470        1-2     12.006 /_  -10.0   0.96279
   -          2       6.9463 /_ -159.9   0.96483    12.470        2-3     12.018 /_ -130.0   0.96372
   -          3       6.9264 /_   80.0   0.96206    12.470        3-1     12.008 /_  109.9   0.96296
165451 ...... 1       6.9317 /_  -40.1    0.9628    12.470        1-2     12.009 /_  -10.0   0.96301
   -          2        6.948 /_ -159.9   0.96506    12.470        2-3      12.02 /_ -130.0   0.96394
   -          3       6.9278 /_   80.0   0.96226    12.470        3-1     12.011 /_  109.9   0.96317
238402 ...... 1       6.9299 /_  -40.1   0.96254    12.470        1-2     12.005 /_  -10.0   0.96274
   -          2       6.9459 /_ -159.9   0.96477    12.470        2-3     12.017 /_ -130.0   0.96367
   -          3        6.926 /_   80.0   0.96201    12.470        3-1     12.007 /_  109.9   0.96291
165455 ...... 1       6.9273 /_  -40.1   0.96219    12.470        1-2     12.001 /_  -10.0   0.96239
   -          2       6.9434 /_ -159.9   0.96442    12.470        2-3     12.013 /_ -130.0   0.96332
   -          3       6.9235 /_   80.0   0.96166    12.470        3-1     12.003 /_  109.9   0.96256
165456 ...... 1       6.9274 /_  -40.1   0.96219    12.470        1-2     12.001 /_  -10.0   0.96239
   -          2       6.9434 /_ -159.9   0.96442    12.470        2-3     12.013 /_ -130.0   0.96332
   -          3       6.9235 /_   80.0   0.96166    12.470        3-1     12.003 /_  109.9   0.96256
165452 ...... 1       6.9283 /_  -40.1   0.96233    12.470        1-2     12.003 /_  -10.0   0.96253
   -          2       6.9444 /_ -159.9   0.96456    12.470        2-3     12.014 /_ -130.0   0.96346
   -          3       6.9245 /_   80.0   0.96179    12.470        3-1     12.005 /_  109.9    0.9627
283563 ...... 1       6.9275 /_  -40.1   0.96222    12.470        1-2     12.001 /_  -10.0   0.96242
   -          2       6.9436 /_ -159.9   0.96445    12.470        2-3     12.013 /_ -130.0   0.96335
   -          3       6.9237 /_   80.0   0.96168    12.470        3-1     12.003 /_  109.9   0.96259
165457 ...... 1       6.9272 /_  -40.1   0.96218    12.470        1-2     12.001 /_  -10.0   0.96237
   -          2       6.9433 /_ -159.9   0.96441    12.470        2-3     12.012 /_ -130.0    0.9633
   -          3       6.9234 /_   80.0   0.96164    12.470        3-1     12.003 /_  109.9   0.96255
165458 ...... 1       6.9309 /_  -40.1   0.96268    12.470        1-2     12.007 /_  -10.0   0.96289
   -          2       6.9471 /_ -159.9   0.96494    12.470        2-3     12.019 /_ -130.0   0.96382
   -          3        6.927 /_   80.0   0.96214    12.470        3-1     12.009 /_  109.9   0.96305
165459 ...... 1       6.9309 /_  -40.1   0.96268    12.470        1-2     12.007 /_  -10.0   0.96289
   -          2       6.9472 /_ -159.9   0.96495    12.470        2-3     12.019 /_ -130.0   0.96383
   -          3        6.927 /_   80.0   0.96214    12.470        3-1     12.009 /_  109.9   0.96305
165460 ...... 1       6.9307 /_  -40.1   0.96265    12.470        1-2     12.007 /_  -10.0   0.96286
   -          2       6.9469 /_ -159.9   0.96491    12.470        2-3     12.018 /_ -130.0   0.96379
   -          3       6.9268 /_   80.0   0.96211    12.470        3-1     12.009 /_  109.9   0.96302
165461 ...... 1       6.9277 /_  -40.1   0.96224    12.470        1-2     12.002 /_  -10.0   0.96245
   -          2        6.944 /_ -160.0    0.9645    12.470        2-3     12.013 /_ -130.0   0.96338
   -          3       6.9238 /_   80.0    0.9617    12.470        3-1     12.004 /_  109.9   0.96261
165463 ...... 1       6.9268 /_  -40.1   0.96212    12.470        1-2         12 /_  -10.0   0.96233
   -          2       6.9431 /_ -160.0   0.96438    12.470        2-3     12.012 /_ -130.0   0.96326
   -          3       6.9229 /_   80.0   0.96158    12.470        3-1     12.002 /_  109.9   0.96249
165462 ...... 1       6.9261 /_  -40.1   0.96202    12.470        1-2     11.999 /_  -10.0   0.96223
   -          2       6.9424 /_ -160.0   0.96428    12.470        2-3     12.011 /_ -130.0   0.96316
   -          3       6.9222 /_   80.0   0.96148    12.470        3-1     12.001 /_  109.9   0.96239
165465 ...... 1       6.9267 /_  -40.1   0.96211    12.470        1-2         12 /_  -10.0   0.96232
   -          2        6.943 /_ -160.0   0.96437    12.470        2-3     12.012 /_ -130.0   0.96325
   -          3       6.9229 /_   80.0   0.96157    12.470        3-1     12.002 /_  109.9   0.96248
165466 ...... 1       6.9277 /_  -40.1   0.96224    12.470        1-2     12.002 /_  -10.0   0.96245
   -          2        6.944 /_ -160.0    0.9645    12.470        2-3     12.013 /_ -130.0   0.96338
   -          3       6.9238 /_   80.0    0.9617    12.470        3-1     12.004 /_  109.9   0.96261
165467 ...... 1       6.9188 /_  -40.2     0.961    12.470        1-2     11.988 /_  -10.0   0.96137
   -          2       6.9381 /_ -160.0   0.96368    12.470        2-3         12 /_ -130.1   0.96233
   -          3       6.9144 /_   79.9   0.96039    12.470        3-1     11.988 /_  109.9   0.96138
165468 ...... 1       6.9182 /_  -40.2   0.96091    12.470        1-2     11.987 /_  -10.1   0.96127
   -          2       6.9379 /_ -160.0   0.96366    12.470        2-3     11.999 /_ -130.1   0.96226
   -          3       6.9134 /_   79.9   0.96025    12.470        3-1     11.987 /_  109.9   0.96128
165475 ...... 1       6.9154 /_  -40.2   0.96053    12.470        1-2     11.982 /_  -10.1   0.96088
   -          2       6.9355 /_ -160.0   0.96332    12.470        2-3     11.995 /_ -130.1   0.96189
   -          3       6.9103 /_   79.9   0.95982    12.470        3-1     11.982 /_  109.8   0.96089
165476 ...... 1       6.9153 /_  -40.2   0.96052    12.470        1-2     11.982 /_  -10.1   0.96088
   -          2       6.9355 /_ -160.0   0.96332    12.470        2-3     11.995 /_ -130.1   0.96189
   -          3       6.9103 /_   79.9   0.95982    12.470        3-1     11.982 /_  109.8   0.96089
165477 ...... 1        6.915 /_  -40.2   0.96047    12.470        1-2     11.982 /_  -10.1   0.96083
   -          2       6.9351 /_ -160.0   0.96327    12.470        2-3     11.994 /_ -130.1   0.96184
   -          3       6.9099 /_   79.9   0.95977    12.470        3-1     11.982 /_  109.8   0.96084
273626 ...... 1       6.9159 /_  -40.2   0.96061    12.470        1-2     11.983 /_  -10.1   0.96096
   -          2       6.9361 /_ -160.0    0.9634    12.470        2-3     11.996 /_ -130.1   0.96197
   -          3       6.9109 /_   79.9    0.9599    12.470        3-1     11.983 /_  109.8   0.96097
165469 ...... 1       6.9175 /_  -40.2   0.96082    12.470        1-2     11.986 /_  -10.1   0.96118
   -          2       6.9377 /_ -160.0   0.96363    12.470        2-3     11.999 /_ -130.1   0.96219
   -          3       6.9124 /_   79.9   0.96011    12.470        3-1     11.986 /_  109.8   0.96119
165480 ...... 1       6.9167 /_  -40.3   0.96071    12.470        1-2     11.984 /_  -10.1   0.96106
   -          2       6.9376 /_ -160.0   0.96361    12.470        2-3     11.998 /_ -130.1   0.96212
   -          3       6.9111 /_   79.9   0.95993    12.470        3-1     11.985 /_  109.8   0.96107
165478 ...... 1       6.9162 /_  -40.3   0.96064    12.470        1-2     11.983 /_  -10.1   0.96098
   -          2       6.9375 /_ -160.1    0.9636    12.470        2-3     11.997 /_ -130.2   0.96207
   -          3       6.9101 /_   79.9    0.9598    12.470        3-1     11.983 /_  109.8   0.96098
165479 ...... 1       6.9156 /_  -40.3   0.96056    12.470        1-2     11.982 /_  -10.1    0.9609
   -          2       6.9375 /_ -160.1    0.9636    12.470        2-3     11.996 /_ -130.2   0.96202
   -          3       6.9092 /_   79.8   0.95967    12.470        3-1     11.982 /_  109.8    0.9609
165484 ...... 1       6.9159 /_  -40.3    0.9606    12.470        1-2     11.983 /_  -10.1   0.96094
   -          2       6.9372 /_ -160.1   0.96356    12.470        2-3     11.996 /_ -130.2   0.96203
   -          3       6.9098 /_   79.9   0.95976    12.470        3-1     11.983 /_  109.8   0.96094
165483 ...... 1       6.9159 /_  -40.3    0.9606    12.470        1-2     11.983 /_  -10.1   0.96095
   -          2       6.9373 /_ -160.1   0.96357    12.470        2-3     11.997 /_ -130.2   0.96203
   -          3       6.9099 /_   79.9   0.95977    12.470        3-1     11.983 /_  109.8   0.96095
261839 ...... 1       6.9159 /_  -40.3    0.9606    12.470        1-2     11.983 /_  -10.1   0.96095
   -          2       6.9373 /_ -160.1   0.96357    12.470        2-3     11.997 /_ -130.2   0.96204
   -          3       6.9099 /_   79.9   0.95977    12.470        3-1     11.983 /_  109.8   0.96095
261838 ...... 1       6.9159 /_  -40.3   0.96061    12.470        1-2     11.983 /_  -10.1   0.96095
   -          2       6.9373 /_ -160.1   0.96357    12.470        2-3     11.997 /_ -130.2   0.96204
   -          3       6.9099 /_   79.9   0.95977    12.470        3-1     11.983 /_  109.8   0.96096
165486 ...... 1       6.9155 /_  -40.3   0.96054    12.470        1-2     11.982 /_  -10.1   0.96089
   -          2       6.9375 /_ -160.1    0.9636    12.470        2-3     11.996 /_ -130.2   0.96202
   -          3       6.9092 /_   79.8   0.95967    12.470        3-1     11.982 /_  109.8   0.96089
165485 ...... 1       6.9154 /_  -40.3   0.96053    12.470        1-2     11.982 /_  -10.1   0.96089
   -          2       6.9375 /_ -160.1    0.9636    12.470        2-3     11.996 /_ -130.2   0.96202
   -          3       6.9092 /_   79.8   0.95967    12.470        3-1     11.982 /_  109.8   0.96089
165487 ...... 1       6.9148 /_  -40.4   0.96045    12.470        1-2     11.981 /_  -10.2   0.96079
   -          2       6.9374 /_ -160.1   0.96359    12.470        2-3     11.995 /_ -130.2   0.96195
   -          3       6.9078 /_   79.8   0.95948    12.470        3-1     11.981 /_  109.7   0.96078
165488 ...... 1       6.9141 /_  -40.4   0.96035    12.470
165489 ...... 1       6.9142 /_  -40.4   0.96036    12.470
165491 ...... 1       6.9137 /_  -40.4    0.9603    12.470
165490 ...... 1       6.9133 /_  -40.4   0.96024    12.470
165494 ...... 1       6.9129 /_  -40.4   0.96018    12.470
165492 ...... 1       6.9128 /_  -40.4   0.96017    12.470
165493 ...... 1       6.9125 /_  -40.4   0.96013    12.470
283952 ...... 1       6.9143 /_  -40.4   0.96038    12.470        1-2      11.98 /_  -10.2   0.96068
   -          2       6.9371 /_ -160.1   0.96355    12.470        2-3     11.994 /_ -130.2   0.96187
   -          3       6.9064 /_   79.8   0.95927    12.470        3-1     11.979 /_  109.7   0.96065
165500 ...... 1       6.9133 /_  -40.5   0.96025    12.470        1-2     11.977 /_  -10.3   0.96048
   -          2       6.9368 /_ -160.2    0.9635    12.470        2-3     11.993 /_ -130.3   0.96173
   -          3       6.9036 /_   79.7   0.95889    12.470        3-1     11.976 /_  109.6   0.96041
165501 ...... 1       6.9133 /_  -40.5   0.96024    12.470        1-2     11.977 /_  -10.3   0.96048
   -          2       6.9368 /_ -160.2    0.9635    12.470        2-3     11.993 /_ -130.3   0.96173
   -          3       6.9035 /_   79.7   0.95889    12.470        3-1     11.976 /_  109.6   0.96041
165495 ...... 1       6.9134 /_  -40.5   0.96025    12.470        1-2     11.977 /_  -10.3   0.96049
   -          2       6.9368 /_ -160.2    0.9635    12.470        2-3     11.993 /_ -130.3   0.96173
   -          3       6.9036 /_   79.7   0.95889    12.470        3-1     11.976 /_  109.6   0.96042
165503 ...... 1       6.9132 /_  -40.5   0.96023    12.470        1-2     11.977 /_  -10.3   0.96047
   -          2       6.9366 /_ -160.2   0.96348    12.470        2-3     11.993 /_ -130.3   0.96171
   -          3       6.9034 /_   79.7   0.95887    12.470        3-1     11.976 /_  109.6   0.96039
165504 ...... 1       6.8583 /_  -40.8   0.95261    12.470        1-2     11.886 /_  -10.5   0.95319
   -          2       6.8907 /_ -160.4   0.95709    12.470        2-3     11.899 /_ -130.6   0.95422
   -          3       6.8393 /_   79.4   0.94996    12.470        3-1     11.875 /_  109.4   0.95225
181883 ...... 1       6.8517 /_  -41.0   0.95168    12.470        1-2     11.874 /_  -10.8   0.95223
   -          2       6.8847 /_ -160.7   0.95627    12.470        2-3     11.888 /_ -130.9   0.95332
   -          3       6.8317 /_   79.2   0.94891    12.470        3-1     11.863 /_  109.1    0.9513
158676 ...... 1       6.8517 /_  -41.0   0.95168    12.470        1-2     11.874 /_  -10.8   0.95223
   -          2       6.8847 /_ -160.7   0.95627    12.470        2-3     11.888 /_ -130.9   0.95332
   -          3       6.8317 /_   79.2   0.94891    12.470        3-1     11.863 /_  109.1    0.9513
181889 ...... 1       6.8489 /_  -41.0   0.95129    12.470        1-2     11.869 /_  -10.8   0.95184
   -          2       6.8817 /_ -160.7   0.95585    12.470        2-3     11.883 /_ -130.9   0.95295
   -          3       6.8294 /_   79.2   0.94859    12.470        3-1     11.858 /_  109.1   0.95095
181890 ...... 1       6.8489 /_  -41.0   0.95129    12.470        1-2     11.869 /_  -10.8   0.95184
   -          2       6.8817 /_ -160.7   0.95585    12.470        2-3     11.883 /_ -130.9   0.95294
   -          3       6.8294 /_   79.2   0.94859    12.470        3-1     11.858 /_  109.1   0.95094
181891 ...... 1       6.8464 /_  -41.0   0.95094    12.470        1-2     11.865 /_  -10.8   0.95149
   -          2        6.879 /_ -160.7   0.95548    12.470        2-3     11.879 /_ -130.9   0.95261
   -          3       6.8275 /_   79.2   0.94833    12.470        3-1     11.854 /_  109.1   0.95063
181892 ...... 1       6.8463 /_  -41.0   0.95094    12.470        1-2     11.865 /_  -10.8   0.95148
   -          2        6.879 /_ -160.7   0.95547    12.470        2-3     11.879 /_ -130.9   0.95261
   -          3       6.8275 /_   79.2   0.94832    12.470        3-1     11.854 /_  109.1   0.95063
181884 ...... 1       6.8495 /_  -41.0   0.95137    12.470        1-2      11.87 /_  -10.8   0.95192
   -          2       6.8823 /_ -160.7   0.95594    12.470        2-3     11.884 /_ -130.9   0.95302
   -          3       6.8299 /_   79.2   0.94866    12.470        3-1     11.859 /_  109.1   0.95102
181886 ...... 1       6.8489 /_  -41.0    0.9513    12.470        1-2      11.87 /_  -10.8   0.95184
   -          2       6.8818 /_ -160.7   0.95586    12.470        2-3     11.883 /_ -130.9   0.95295
   -          3       6.8295 /_   79.2    0.9486    12.470        3-1     11.858 /_  109.1   0.95095
181888 ...... 1       6.8476 /_  -41.0   0.95111    12.470        1-2     11.867 /_  -10.8   0.95166
   -          2       6.8803 /_ -160.7   0.95566    12.470        2-3     11.881 /_ -130.9   0.95277
   -          3       6.8284 /_   79.2   0.94845    12.470        3-1     11.856 /_  109.1   0.95078
181885 ...... 1       6.8467 /_  -41.0   0.95099    12.470        1-2     11.866 /_  -10.8   0.95154
   -          2       6.8794 /_ -160.7   0.95553    12.470        2-3      11.88 /_ -130.9   0.95266
   -          3       6.8278 /_   79.2   0.94836    12.470        3-1     11.855 /_  109.1   0.95068
181887 ...... 1       6.8466 /_  -41.0   0.95098    12.470        1-2     11.866 /_  -10.8   0.95152
   -          2       6.8793 /_ -160.7   0.95551    12.470        2-3     11.879 /_ -130.9   0.95264
   -          3       6.8277 /_   79.2   0.94835    12.470        3-1     11.855 /_  109.1   0.95066
181893 ...... 1       6.8489 /_  -41.0   0.95129    12.470        1-2     11.869 /_  -10.8   0.95183
   -          2       6.8817 /_ -160.7   0.95585    12.470        2-3     11.883 /_ -130.9   0.95294
   -          3       6.8294 /_   79.2   0.94859    12.470        3-1     11.858 /_  109.1   0.95094
181894 ...... 1       6.8463 /_  -41.0   0.95093    12.470        1-2     11.865 /_  -10.8   0.95148
   -          2       6.8789 /_ -160.7   0.95546    12.470        2-3     11.879 /_ -130.9    0.9526
...
X_0862099 ... 1      0.11495 /_  -70.2   0.95725     0.208        1-2    0.19907 /_  -40.2   0.95708
   -          2      0.11493 /_  169.8   0.95703     0.208        2-3    0.19909 /_ -160.2   0.95715
   -          3      0.11496 /_   49.8   0.95732     0.208        3-1    0.19913 /_   79.8   0.95737
S1X_0862099 . 1      0.11442 /_  -70.2   0.95283     0.208        1-2    0.19819 /_  -40.1   0.95281
   -          2      0.11444 /_  169.9   0.95295     0.208        2-3    0.19827 /_ -160.1   0.95324
   -          3       0.1145 /_   49.8   0.95343     0.208        3-1    0.19825 /_   79.8   0.95315
S2X_0862099 . 1      0.11442 /_  -70.2   0.95283     0.208        1-2    0.19819 /_  -40.1   0.95281
   -          2      0.11444 /_  169.9   0.95295     0.208        2-3    0.19827 /_ -160.1   0.95324
   -          3       0.1145 /_   49.8   0.95343     0.208        3-1    0.19825 /_   79.8   0.95315
S3X_0862099 . 1      0.11442 /_  -70.2   0.95283     0.208        1-2    0.19819 /_  -40.1   0.95281
   -          2      0.11444 /_  169.9   0.95295     0.208        2-3    0.19827 /_ -160.1   0.95324
   -          3       0.1145 /_   49.8   0.95343     0.208        3-1    0.19825 /_   79.8   0.95315
X_1000663 ... 1      0.23075 /_  -39.6   0.96142     0.416        1-2    0.39968 /_   -9.6   0.96147
   -          2      0.23084 /_ -159.6   0.96181     0.416        2-3    0.39973 /_ -129.6   0.96157
   -          3      0.23073 /_   80.4   0.96136     0.416        3-1    0.39971 /_  110.4   0.96154
S1X_1000663 . 1      0.22979 /_  -39.6   0.95745     0.416        1-2    0.39799 /_   -9.5   0.95741
   -          2      0.22984 /_ -159.5   0.95766     0.416        2-3    0.39798 /_ -129.5   0.95736
   -          3      0.22971 /_   80.5   0.95709     0.416        3-1    0.39801 /_  110.5   0.95744
X_1000252 ... 2      0.23057 /_ -159.8   0.96069     0.416
S1X_1000252 . 2       0.2291 /_ -159.8   0.95455     0.416
X_1001746 ... 1      0.11455 /_  -70.8   0.95391     0.208        1-2    0.19834 /_  -40.8   0.95354
   -          2      0.11453 /_  169.2   0.95373     0.208        2-3    0.19849 /_ -160.8   0.95427
   -          3      0.11464 /_   49.2   0.95464     0.208        3-1    0.19853 /_   79.2   0.95446
S1X_1001746 . 1      0.11349 /_  -70.8   0.94506     0.208        1-2    0.19656 /_  -40.8   0.94502
   -          2      0.11356 /_  169.3   0.94559     0.208        2-3    0.19686 /_ -160.7   0.94646
   -          3      0.11371 /_   49.2   0.94685     0.208        3-1    0.19677 /_   79.2   0.94603
S2X_1001746 . 1      0.11349 /_  -70.8   0.94506     0.208        1-2    0.19656 /_  -40.8   0.94502
   -          2      0.11356 /_  169.3   0.94559     0.208        2-3    0.19686 /_ -160.7   0.94646
   -          3      0.11371 /_   49.2   0.94685     0.208        3-1    0.19677 /_   79.2   0.94603
S3X_1001746 . 1      0.11349 /_  -70.8   0.94506     0.208        1-2    0.19656 /_  -40.8   0.94502
   -          2      0.11356 /_  169.3   0.94559     0.208        2-3    0.19686 /_ -160.7   0.94646
   -          3      0.11371 /_   49.2   0.94685     0.208        3-1    0.19677 /_   79.2   0.94603
X_1000502 ... 2      0.23047 /_ -160.1   0.96026     0.416
S1X_1000502 . 2      0.22748 /_ -160.0   0.94781     0.416
X_1000824 ... 1      0.22975 /_  -40.2   0.95728     0.416        1-2    0.39799 /_  -10.1   0.95739
   -          2      0.23023 /_ -160.1   0.95927     0.416        2-3    0.39829 /_ -130.1   0.95812
   -          3      0.22953 /_   79.9   0.95637     0.416        3-1      0.398 /_  109.8   0.95741
S1X_1000824 . 1      0.22943 /_  -40.2   0.95596     0.416        1-2    0.39742 /_  -10.1   0.95603
   -          2       0.2299 /_ -160.1   0.95789     0.416        2-3    0.39771 /_ -130.1   0.95672
   -          3      0.22919 /_   79.9   0.95495     0.416        3-1    0.39743 /_  109.8   0.95604
S2X_1000824 . 1      0.22943 /_  -40.2   0.95596     0.416        1-2    0.39742 /_  -10.1   0.95603
   -          2       0.2299 /_ -160.1   0.95789     0.416        2-3    0.39771 /_ -130.1   0.95672
   -          3      0.22919 /_   79.9   0.95495     0.416        3-1    0.39743 /_  109.8   0.95604
S3X_1000824 . 1      0.22943 /_  -40.2   0.95596     0.416        1-2    0.39742 /_  -10.1   0.95603
   -          2       0.2299 /_ -160.1   0.95789     0.416        2-3    0.39771 /_ -130.1   0.95672
   -          3      0.22919 /_   79.9   0.95495     0.416        3-1    0.39743 /_  109.8   0.95604
X_1001745 ... 1      0.11454 /_  -70.8   0.95376     0.208        1-2     0.1983 /_  -40.8   0.95339
   -          2      0.11451 /_  169.2   0.95358     0.208        2-3    0.19846 /_ -160.8   0.95412
   -          3      0.11462 /_   49.2   0.95449     0.208        3-1     0.1985 /_   79.2   0.95431
S1X_1001745 . 1      0.11347 /_  -70.8   0.94491     0.208        1-2    0.19653 /_  -40.8   0.94487
   -          2      0.11354 /_  169.3   0.94544     0.208        2-3    0.19683 /_ -160.7   0.94631
   -          3      0.11369 /_   49.2    0.9467     0.208        3-1    0.19674 /_   79.2   0.94588
S2X_1001745 . 1      0.11347 /_  -70.8   0.94491     0.208        1-2    0.19653 /_  -40.8   0.94487
   -          2      0.11354 /_  169.3   0.94544     0.208        2-3    0.19683 /_ -160.7   0.94631
   -          3      0.11369 /_   49.2    0.9467     0.208        3-1    0.19674 /_   79.2   0.94588
S3X_1001745 . 1      0.11347 /_  -70.8   0.94491     0.208        1-2    0.19653 /_  -40.8   0.94487
   -          2      0.11354 /_  169.3   0.94544     0.208        2-3    0.19683 /_ -160.7   0.94631
   -          3      0.11369 /_   49.2    0.9467     0.208        3-1    0.19674 /_   79.2   0.94588
X_1001329 ... 1      0.11447 /_  -70.8   0.95321     0.208        1-2    0.19819 /_  -40.8   0.95284
   -          2      0.11445 /_  169.3   0.95304     0.208        2-3    0.19835 /_ -160.7    0.9536
   -          3      0.11456 /_   49.3   0.95396     0.208        3-1    0.19838 /_   79.2   0.95377
S1X_1001329 . 1      0.11394 /_  -70.8   0.94878     0.208        1-2    0.19731 /_  -40.7   0.94858
   -          2      0.11396 /_  169.3   0.94897     0.208        2-3    0.19754 /_ -160.7   0.94969
   -          3      0.11409 /_   49.3   0.95007     0.208        3-1    0.19751 /_   79.2   0.94955
S2X_1001329 . 1      0.11394 /_  -70.8   0.94878     0.208        1-2    0.19731 /_  -40.7   0.94858
   -          2      0.11396 /_  169.3   0.94897     0.208        2-3    0.19754 /_ -160.7   0.94969
   -          3      0.11409 /_   49.3   0.95007     0.208        3-1    0.19751 /_   79.2   0.94955
S3X_1001329 . 1      0.11394 /_  -70.8   0.94878     0.208        1-2    0.19731 /_  -40.7   0.94858
   -          2      0.11396 /_  169.3   0.94897     0.208        2-3    0.19754 /_ -160.7   0.94969
   -          3      0.11409 /_   49.3   0.95007     0.208        3-1    0.19751 /_   79.2   0.94955
X_1001359 ... 1       0.1141 /_  -71.1   0.95009     0.208        1-2    0.19754 /_  -41.1   0.94972
   -          2      0.11407 /_  169.0   0.94992     0.208        2-3    0.19769 /_ -161.0   0.95045
   -          3      0.11418 /_   48.9   0.95081     0.208        3-1    0.19773 /_   78.9   0.95064
S1X_1001359 . 1      0.11233 /_  -71.1   0.93538     0.208        1-2    0.19459 /_  -41.0   0.93553
   -          2      0.11245 /_  169.0   0.93638     0.208        2-3    0.19499 /_ -161.0   0.93744
   -          3      0.11262 /_   48.9   0.93782     0.208        3-1    0.19482 /_   78.9   0.93661
S2X_1001359 . 1      0.11233 /_  -71.1   0.93538     0.208        1-2    0.19459 /_  -41.0   0.93553
   -          2      0.11245 /_  169.0   0.93638     0.208        2-3    0.19499 /_ -161.0   0.93744
   -          3      0.11262 /_   48.9   0.93782     0.208        3-1    0.19482 /_   78.9   0.93661
S3X_1001359 . 1      0.11233 /_  -71.1   0.93538     0.208        1-2    0.19459 /_  -41.0   0.93553
   -          2      0.11245 /_  169.0   0.93638     0.208        2-3    0.19499 /_ -161.0   0.93744
   -          3      0.11262 /_   48.9   0.93782     0.208        3-1    0.19482 /_   78.9   0.93661
X_1001330 ... 1      0.11452 /_  -70.8   0.95363     0.208        1-2    0.19828 /_  -40.8   0.95327
   -          2       0.1145 /_  169.2   0.95347     0.208        2-3    0.19844 /_ -160.8   0.95402
   -          3      0.11461 /_   49.2   0.95438     0.208        3-1    0.19847 /_   79.2   0.95419
S1X_1001330 . 1      0.11399 /_  -70.8   0.94921     0.208        1-2    0.19739 /_  -40.8   0.94901
   -          2      0.11401 /_  169.2    0.9494     0.208        2-3    0.19762 /_ -160.8   0.95011
   -          3      0.11414 /_   49.2   0.95049     0.208        3-1    0.19759 /_   79.2   0.94998
S2X_1001330 . 1      0.11399 /_  -70.8   0.94921     0.208        1-2    0.19739 /_  -40.8   0.94901
   -          2      0.11401 /_  169.2    0.9494     0.208        2-3    0.19762 /_ -160.8   0.95011
   -          3      0.11414 /_   49.2   0.95049     0.208        3-1    0.19759 /_   79.2   0.94998
S3X_1001330 . 1      0.11399 /_  -70.8   0.94921     0.208        1-2    0.19739 /_  -40.8   0.94901
   -          2      0.11401 /_  169.2    0.9494     0.208        2-3    0.19762 /_ -160.8   0.95011
   -          3      0.11414 /_   49.2   0.95049     0.208        3-1    0.19759 /_   79.2   0.94998
S4X_1001330 . 1      0.11399 /_  -70.8   0.94921     0.208        1-2    0.19739 /_  -40.8   0.94901
   -          2      0.11401 /_  169.2    0.9494     0.208        2-3    0.19762 /_ -160.8   0.95011
   -          3      0.11414 /_   49.2   0.95049     0.208        3-1    0.19759 /_   79.2   0.94998
S5X_1001330 . 1      0.11399 /_  -70.8   0.94921     0.208        1-2    0.19739 /_  -40.8   0.94901
   -          2      0.11401 /_  169.2    0.9494     0.208        2-3    0.19762 /_ -160.8   0.95011
   -          3      0.11414 /_   49.2   0.95049     0.208        3-1    0.19759 /_   79.2   0.94998
S6X_1001330 . 1      0.11399 /_  -70.8   0.94921     0.208        1-2    0.19739 /_  -40.8   0.94901
   -          2      0.11401 /_  169.2    0.9494     0.208        2-3    0.19762 /_ -160.8   0.95011
   -          3      0.11414 /_   49.2   0.95049     0.208        3-1    0.19759 /_   79.2   0.94998
X_1000672 ... 1      0.22937 /_  -40.3    0.9557     0.416
S1X_1000672 . 1      0.22842 /_  -40.3   0.95173     0.416
X_1001708 ... 1      0.11393 /_  -71.2   0.94868     0.208        1-2    0.19725 /_  -41.2   0.94833
   -          2      0.11392 /_  168.9   0.94865     0.208        2-3    0.19745 /_ -161.1   0.94928
   -          3      0.11404 /_   48.8   0.94961     0.208        3-1    0.19746 /_   78.8   0.94933
S1X_1001708 . 1      0.11128 /_  -71.1   0.92664     0.208        1-2    0.19283 /_  -41.1   0.92705
   -          2      0.11149 /_  169.0   0.92839     0.208        2-3    0.19339 /_ -161.1   0.92977
   -          3       0.1117 /_   48.8   0.93011     0.208        3-1    0.19309 /_   78.8   0.92832
S2X_1001708 . 1      0.11128 /_  -71.1   0.92664     0.208        1-2    0.19283 /_  -41.1   0.92705
   -          2      0.11149 /_  169.0   0.92839     0.208        2-3    0.19339 /_ -161.1   0.92977
   -          3       0.1117 /_   48.8   0.93011     0.208        3-1    0.19309 /_   78.8   0.92832
S3X_1001708 . 1      0.11128 /_  -71.1   0.92664     0.208        1-2    0.19283 /_  -41.1   0.92705
   -          2      0.11149 /_  169.0   0.92839     0.208        2-3    0.19339 /_ -161.1   0.92977
   -          3       0.1117 /_   48.8   0.93011     0.208        3-1    0.19309 /_   78.8   0.92832
X_1001345 ... 1      0.11422 /_  -70.9   0.95116     0.208        1-2    0.19777 /_  -40.9    0.9508
   -          2      0.11422 /_  169.1   0.95116     0.208        2-3    0.19799 /_ -160.9   0.95186
   -          3      0.11435 /_   49.1   0.95222     0.208        3-1    0.19799 /_   79.1   0.95188
S1X_1001345 . 1      0.11369 /_  -70.9   0.94674     0.208        1-2    0.19688 /_  -40.9   0.94654
   -          2      0.11374 /_  169.2   0.94709     0.208        2-3    0.19717 /_ -160.8   0.94795
   -          3      0.11388 /_   49.1   0.94833     0.208        3-1    0.19711 /_   79.1   0.94766
S2X_1001345 . 1      0.11369 /_  -70.9   0.94674     0.208        1-2    0.19688 /_  -40.9   0.94654
   -          2      0.11374 /_  169.2   0.94709     0.208        2-3    0.19717 /_ -160.8   0.94795
   -          3      0.11388 /_   49.1   0.94833     0.208        3-1    0.19711 /_   79.1   0.94766
S3X_1001345 . 1      0.11369 /_  -70.9   0.94674     0.208        1-2    0.19688 /_  -40.9   0.94654
   -          2      0.11374 /_  169.2   0.94709     0.208        2-3    0.19717 /_ -160.8   0.94795
   -          3      0.11388 /_   49.1   0.94833     0.208        3-1    0.19711 /_   79.1   0.94766
X_1000933 ... 1      0.11422 /_  -70.9   0.95111     0.208        1-2    0.19776 /_  -40.9   0.95075
   -          2      0.11422 /_  169.1   0.95111     0.208        2-3    0.19798 /_ -160.9   0.95182
   -          3      0.11435 /_   49.1   0.95218     0.208        3-1    0.19798 /_   79.1   0.95183
S1X_1000933 . 1      0.11411 /_  -70.9   0.95023     0.208        1-2    0.19758 /_  -40.9    0.9499
   -          2      0.11412 /_  169.2    0.9503     0.208        2-3    0.19782 /_ -160.8   0.95104
   -          3      0.11425 /_   49.1    0.9514     0.208        3-1    0.19781 /_   79.1   0.95099
S2X_1000933 . 1      0.11411 /_  -70.9   0.95023     0.208        1-2    0.19758 /_  -40.9    0.9499
   -          2      0.11412 /_  169.2    0.9503     0.208        2-3    0.19782 /_ -160.8   0.95104
   -          3      0.11425 /_   49.1    0.9514     0.208        3-1    0.19781 /_   79.1   0.95099
S3X_1000933 . 1      0.11411 /_  -70.9   0.95023     0.208        1-2    0.19758 /_  -40.9    0.9499
   -          2      0.11412 /_  169.2    0.9503     0.208        2-3    0.19782 /_ -160.8   0.95104
   -          3      0.11425 /_   49.1    0.9514     0.208        3-1    0.19781 /_   79.1   0.95099
S4X_1000933 . 1      0.11411 /_  -70.9   0.95023     0.208        1-2    0.19758 /_  -40.9    0.9499
   -          2      0.11412 /_  169.2    0.9503     0.208        2-3    0.19782 /_ -160.8   0.95104
   -          3      0.11425 /_   49.1    0.9514     0.208        3-1    0.19781 /_   79.1   0.95099
S5X_1000933 . 1      0.11411 /_  -70.9   0.95023     0.208        1-2    0.19758 /_  -40.9    0.9499
   -          2      0.11412 /_  169.2    0.9503     0.208        2-3    0.19782 /_ -160.8   0.95104
   -          3      0.11425 /_   49.1    0.9514     0.208        3-1    0.19781 /_   79.1   0.95099
S6X_1000933 . 1      0.11411 /_  -70.9   0.95023     0.208        1-2    0.19758 /_  -40.9    0.9499
   -          2      0.11412 /_  169.2    0.9503     0.208        2-3    0.19782 /_ -160.8   0.95104
   -          3      0.11425 /_   49.1    0.9514     0.208        3-1    0.19781 /_   79.1   0.95099
S7X_1000933 . 1      0.11411 /_  -70.9   0.95023     0.208        1-2    0.19758 /_  -40.9    0.9499
   -          2      0.11412 /_  169.2    0.9503     0.208        2-3    0.19782 /_ -160.8   0.95104
   -          3      0.11425 /_   49.1    0.9514     0.208        3-1    0.19781 /_   79.1   0.95099
S8X_1000933 . 1      0.11411 /_  -70.9   0.95023     0.208        1-2    0.19758 /_  -40.9    0.9499
   -          2      0.11412 /_  169.2    0.9503     0.208        2-3    0.19782 /_ -160.8   0.95104
   -          3      0.11425 /_   49.1    0.9514     0.208        3-1    0.19781 /_   79.1   0.95099
S9X_1000933 . 1      0.11411 /_  -70.9   0.95023     0.208        1-2    0.19758 /_  -40.9    0.9499
   -          2      0.11412 /_  169.2    0.9503     0.208        2-3    0.19782 /_ -160.8   0.95104
   -          3      0.11425 /_   49.1    0.9514     0.208        3-1    0.19781 /_   79.1   0.95099
S10X_1000933  1      0.11411 /_  -70.9   0.95023     0.208        1-2    0.19758 /_  -40.9    0.9499
   -          2      0.11412 /_  169.2    0.9503     0.208        2-3    0.19782 /_ -160.8   0.95104
   -          3      0.11425 /_   49.1    0.9514     0.208        3-1    0.19781 /_   79.1   0.95099
S11X_1000933  1      0.11411 /_  -70.9   0.95023     0.208        1-2    0.19758 /_  -40.9    0.9499
   -          2      0.11412 /_  169.2    0.9503     0.208        2-3    0.19782 /_ -160.8   0.95104
   -          3      0.11425 /_   49.1    0.9514     0.208        3-1    0.19781 /_   79.1   0.95099
S12X_1000933  1      0.11411 /_  -70.9   0.95023     0.208        1-2    0.19758 /_  -40.9    0.9499
   -          2      0.11412 /_  169.2    0.9503     0.208        2-3    0.19782 /_ -160.8   0.95104
   -          3      0.11425 /_   49.1    0.9514     0.208        3-1    0.19781 /_   79.1   0.95099
S13X_1000933  1      0.11411 /_  -70.9   0.95023     0.208        1-2    0.19758 /_  -40.9    0.9499
   -          2      0.11412 /_  169.2    0.9503     0.208        2-3    0.19782 /_ -160.8   0.95104
   -          3      0.11425 /_   49.1    0.9514     0.208        3-1    0.19781 /_   79.1   0.95099
S14X_1000933  1      0.11411 /_  -70.9   0.95023     0.208        1-2    0.19758 /_  -40.9    0.9499
   -          2      0.11412 /_  169.2    0.9503     0.208        2-3    0.19782 /_ -160.8   0.95104
   -          3      0.11425 /_   49.1    0.9514     0.208        3-1    0.19781 /_   79.1   0.95099
S15X_1000933  1      0.11411 /_  -70.9   0.95023     0.208        1-2    0.19758 /_  -40.9    0.9499
   -          2      0.11412 /_  169.2    0.9503     0.208        2-3    0.19782 /_ -160.8   0.95104
   -          3      0.11425 /_   49.1    0.9514     0.208        3-1    0.19781 /_   79.1   0.95099
X_1001823 ... 1      0.22927 /_  -40.5   0.95529     0.416
S1X_1001823 . 1      0.22786 /_  -40.4   0.94942     0.416
X_1001822 ... 1      0.22856 /_  -40.3    0.9523     0.416        1-2    0.39594 /_  -10.1   0.95247
   -          2       0.2292 /_ -160.0   0.95499     0.416        2-3    0.39629 /_ -130.1    0.9533
   -          3       0.2282 /_   79.9   0.95084     0.416        3-1    0.39589 /_  109.8   0.95235
S1X_1001822 . 1      0.22837 /_  -40.3    0.9515     0.416        1-2     0.3956 /_  -10.1   0.95166
   -          2        0.229 /_ -160.0   0.95416     0.416        2-3    0.39594 /_ -130.1   0.95246
   -          3        0.228 /_   79.9   0.94998     0.416        3-1    0.39555 /_  109.8   0.95153
X_1000042 ... 1       0.2293 /_  -40.6   0.95538     0.416
S1X_1000042 . 1      0.22875 /_  -40.6   0.95311     0.416
S2X_1000042 . 1      0.22875 /_  -40.6   0.95311     0.416
S3X_1000042 . 1      0.22875 /_  -40.6   0.95311     0.416
S4X_1000042 . 1      0.22875 /_  -40.6   0.95311     0.416
S5X_1000042 . 1      0.22875 /_  -40.6   0.95311     0.416
S6X_1000042 . 1      0.22875 /_  -40.6   0.95311     0.416
S7X_1000042 . 1      0.22875 /_  -40.6   0.95311     0.416
X_1000077 ... 1      0.22919 /_  -40.6   0.95495     0.416
S1X_1000077 . 1      0.22887 /_  -40.6   0.95363     0.416
S2X_1000077 . 1      0.22887 /_  -40.6   0.95363     0.416
S3X_1000077 . 1      0.22887 /_  -40.6   0.95363     0.416
S4X_1000077 . 1      0.22887 /_  -40.6   0.95363     0.416
S5X_1000077 . 1      0.22887 /_  -40.6   0.95363     0.416
S6X_1000077 . 1      0.22887 /_  -40.6   0.95363     0.416
X_1000474 ... 1      0.22918 /_  -40.6   0.95492     0.416
S1X_1000474 . 1       0.2288 /_  -40.6   0.95333     0.416
S2X_1000474 . 1       0.2288 /_  -40.6   0.95333     0.416
S3X_1000474 . 1       0.2288 /_  -40.6   0.95333     0.416
S4X_1000474 . 1       0.2288 /_  -40.6   0.95333     0.416
S5X_1000474 . 1       0.2288 /_  -40.6   0.95333     0.416
X_1000043 ... 1      0.22919 /_  -40.6   0.95496     0.416
S1X_1000043 . 1      0.22888 /_  -40.6   0.95364     0.416
S2X_1000043 . 1      0.22888 /_  -40.6   0.95364     0.416
S3X_1000043 . 1      0.22888 /_  -40.6   0.95364     0.416
S4X_1000043 . 1      0.22888 /_  -40.6   0.95364     0.416
S5X_1000043 . 1      0.22888 /_  -40.6   0.95364     0.416
S6X_1000043 . 1      0.22888 /_  -40.6   0.95364     0.416
X_1001567 ... 1      0.11416 /_  -71.1   0.95061     0.208        1-2    0.19765 /_  -41.0   0.95022
   -          2      0.11417 /_  169.0   0.95068     0.208        2-3    0.19792 /_ -161.0   0.95152
   -          3      0.11431 /_   49.0   0.95191     0.208        3-1     0.1979 /_   78.9   0.95146
S1X_1001567 . 1      0.11363 /_  -71.1   0.94619     0.208        1-2    0.19676 /_  -41.0   0.94596
   -          2      0.11368 /_  169.0   0.94662     0.208        2-3     0.1971 /_ -161.0   0.94761
   -          3      0.11385 /_   49.0   0.94801     0.208        3-1    0.19703 /_   78.9   0.94725
S2X_1001567 . 1      0.11363 /_  -71.1   0.94619     0.208        1-2    0.19676 /_  -41.0   0.94596
   -          2      0.11368 /_  169.0   0.94662     0.208        2-3     0.1971 /_ -161.0   0.94761
   -          3      0.11385 /_   49.0   0.94801     0.208        3-1    0.19703 /_   78.9   0.94725
S3X_1001567 . 1      0.11363 /_  -71.1   0.94619     0.208        1-2    0.19676 /_  -41.0   0.94596
   -          2      0.11368 /_  169.0   0.94662     0.208        2-3     0.1971 /_ -161.0   0.94761
   -          3      0.11385 /_   49.0   0.94801     0.208        3-1    0.19703 /_   78.9   0.94725
X_1000233 ... 2      0.22802 /_ -160.8   0.95007     0.416
S1X_1000233 . 2      0.22655 /_ -160.8   0.94393     0.416
X_1000569 ... 1      0.11316 /_  -71.7   0.94229     0.208        1-2    0.19598 /_  -41.6   0.94221
   -          2      0.11326 /_  168.4   0.94317     0.208        2-3    0.19639 /_ -161.6   0.94418
   -          3      0.11339 /_   48.3   0.94425     0.208        3-1    0.19621 /_   78.3   0.94332
S1X_1000569 . 1       0.1121 /_  -71.6   0.93346     0.208        1-2    0.19421 /_  -41.5   0.93369
   -          2      0.11229 /_  168.5   0.93506     0.208        2-3    0.19476 /_ -161.6   0.93637
   -          3      0.11246 /_   48.4   0.93645     0.208        3-1    0.19446 /_   78.3   0.93491
S2X_1000569 . 1       0.1121 /_  -71.6   0.93346     0.208        1-2    0.19421 /_  -41.5   0.93369
   -          2      0.11229 /_  168.5   0.93506     0.208        2-3    0.19476 /_ -161.6   0.93637
   -          3      0.11246 /_   48.4   0.93645     0.208        3-1    0.19446 /_   78.3   0.93491
S3X_1000569 . 1       0.1121 /_  -71.6   0.93346     0.208        1-2    0.19421 /_  -41.5   0.93369
   -          2      0.11229 /_  168.5   0.93506     0.208        2-3    0.19476 /_ -161.6   0.93637
   -          3      0.11246 /_   48.4   0.93645     0.208        3-1    0.19446 /_   78.3   0.93491
X_1000746 ... 1      0.11312 /_  -71.7   0.94197     0.208        1-2    0.19591 /_  -41.6   0.94187
   -          2      0.11322 /_  168.4   0.94281     0.208        2-3    0.19631 /_ -161.6   0.94382
   -          3      0.11335 /_   48.3   0.94391     0.208        3-1    0.19614 /_   78.3     0.943
S1X_1000746 . 1      0.11206 /_  -71.6   0.93314     0.208        1-2    0.19414 /_  -41.6   0.93336
   -          2      0.11225 /_  168.5   0.93471     0.208        2-3    0.19469 /_ -161.6   0.93601
   -          3      0.11242 /_   48.4   0.93611     0.208        3-1    0.19439 /_   78.3   0.93458
S2X_1000746 . 1      0.11206 /_  -71.6   0.93314     0.208        1-2    0.19414 /_  -41.6   0.93336
   -          2      0.11225 /_  168.5   0.93471     0.208        2-3    0.19469 /_ -161.6   0.93601
   -          3      0.11242 /_   48.4   0.93611     0.208        3-1    0.19439 /_   78.3   0.93458
S3X_1000746 . 1      0.11206 /_  -71.6   0.93314     0.208        1-2    0.19414 /_  -41.6   0.93336
   -          2      0.11225 /_  168.5   0.93471     0.208        2-3    0.19469 /_ -161.6   0.93601
   -          3      0.11242 /_   48.4   0.93611     0.208        3-1    0.19439 /_   78.3   0.93458
X_1000608 ... 1      0.22713 /_  -41.2   0.94635     0.416
S1X_1000608 . 1      0.22677 /_  -41.2   0.94486     0.416
S2X_1000608 . 1      0.22677 /_  -41.2   0.94486     0.416
S3X_1000608 . 1      0.22677 /_  -41.2   0.94486     0.416
S4X_1000608 . 1      0.22677 /_  -41.2   0.94486     0.416
S5X_1000608 . 1      0.22677 /_  -41.2   0.94486     0.416
S6X_1000608 . 1      0.22677 /_  -41.2   0.94486     0.416
S7X_1000608 . 1      0.22677 /_  -41.2   0.94486     0.416
S8X_1000608 . 1      0.22677 /_  -41.2   0.94486     0.416
X_1000609 ... 1      0.22693 /_  -41.2   0.94551     0.416
S1X_1000609 . 1      0.22675 /_  -41.2   0.94479     0.416
S2X_1000609 . 1      0.22675 /_  -41.2   0.94479     0.416
S3X_1000609 . 1      0.22675 /_  -41.2   0.94479     0.416
S4X_1000609 . 1      0.22675 /_  -41.2   0.94479     0.416
S5X_1000609 . 1      0.22675 /_  -41.2   0.94479     0.416
S6X_1000609 . 1      0.22675 /_  -41.2   0.94479     0.416
S7X_1000609 . 1      0.22675 /_  -41.2   0.94479     0.416
S8X_1000609 . 1      0.22675 /_  -41.2   0.94479     0.416
S9X_1000609 . 1      0.22675 /_  -41.2   0.94479     0.416
S10X_1000609  1      0.22675 /_  -41.2   0.94479     0.416
S11X_1000609  1      0.22675 /_  -41.2   0.94479     0.416
X_1000610 ... 1      0.22699 /_  -41.3   0.94579     0.416
S1X_1000610 . 1      0.22665 /_  -41.2   0.94434     0.416
S2X_1000610 . 1      0.22665 /_  -41.2   0.94434     0.416
S3X_1000610 . 1      0.22665 /_  -41.2   0.94434     0.416
S4X_1000610 . 1      0.22665 /_  -41.2   0.94434     0.416
S5X_1000610 . 1      0.22665 /_  -41.2   0.94434     0.416
S6X_1000610 . 1      0.22665 /_  -41.2   0.94434     0.416
S7X_1000610 . 1      0.22665 /_  -41.2   0.94434     0.416
S8X_1000610 . 1      0.22665 /_  -41.2   0.94434     0.416
S9X_1000610 . 1      0.22665 /_  -41.2   0.94434     0.416
S10X_1000610  1      0.22665 /_  -41.2   0.94434     0.416
S11X_1000610  1      0.22665 /_  -41.2   0.94434     0.416
X_1000611 ... 1      0.22692 /_  -41.2   0.94546     0.416
S1X_1000611 . 1      0.22653 /_  -41.2   0.94388     0.416
S2X_1000611 . 1      0.22653 /_  -41.2   0.94388     0.416
S3X_1000611 . 1      0.22653 /_  -41.2   0.94388     0.416
S4X_1000611 . 1      0.22653 /_  -41.2   0.94388     0.416
S5X_1000611 . 1      0.22653 /_  -41.2   0.94388     0.416
X_1000612 ... 1      0.22698 /_  -41.3   0.94574     0.416
S1X_1000612 . 1       0.2265 /_  -41.2   0.94375     0.416
S2X_1000612 . 1       0.2265 /_  -41.2   0.94375     0.416
S3X_1000612 . 1       0.2265 /_  -41.2   0.94375     0.416
S4X_1000612 . 1       0.2265 /_  -41.2   0.94375     0.416
S5X_1000612 . 1       0.2265 /_  -41.2   0.94375     0.416
S6X_1000612 . 1       0.2265 /_  -41.2   0.94375     0.416
S7X_1000612 . 1       0.2265 /_  -41.2   0.94375     0.416
S8X_1000612 . 1       0.2265 /_  -41.2   0.94375     0.416
X_1000598 ... 3      0.22645 /_   79.0   0.94353     0.416
S1X_1000598 . 3      0.22611 /_   79.0   0.94211     0.416
S2X_1000598 . 3      0.22611 /_   79.0   0.94211     0.416
S3X_1000598 . 3      0.22611 /_   79.0   0.94211     0.416
S4X_1000598 . 3      0.22611 /_   79.0   0.94211     0.416
S5X_1000598 . 3      0.22611 /_   79.0   0.94211     0.416
S6X_1000598 . 3      0.22611 /_   79.0   0.94211     0.416
S7X_1000598 . 3      0.22611 /_   79.0   0.94211     0.416
S8X_1000598 . 3      0.22611 /_   79.0   0.94211     0.416
S9X_1000598 . 3      0.22611 /_   79.0   0.94211     0.416
X_1000599 ... 3      0.22645 /_   79.0   0.94352     0.416
S1X_1000599 . 3      0.22617 /_   79.0   0.94236     0.416
S2X_1000599 . 3      0.22617 /_   79.0   0.94236     0.416
S3X_1000599 . 3      0.22617 /_   79.0   0.94236     0.416
S4X_1000599 . 3      0.22617 /_   79.0   0.94236     0.416
S5X_1000599 . 3      0.22617 /_   79.0   0.94236     0.416
S6X_1000599 . 3      0.22617 /_   79.0   0.94236     0.416
S7X_1000599 . 3      0.22617 /_   79.0   0.94236     0.416
S8X_1000599 . 3      0.22617 /_   79.0   0.94236     0.416
S9X_1000599 . 3      0.22617 /_   79.0   0.94236     0.416
S10X_1000599  3      0.22617 /_   79.0   0.94236     0.416
S11X_1000599  3      0.22617 /_   79.0   0.94236     0.416
X_1000600 ... 3      0.22625 /_   78.9    0.9427     0.416
S1X_1000600 . 3      0.22602 /_   79.0   0.94175     0.416
S2X_1000600 . 3      0.22602 /_   79.0   0.94175     0.416
S3X_1000600 . 3      0.22602 /_   79.0   0.94175     0.416
S4X_1000600 . 3      0.22602 /_   79.0   0.94175     0.416
S5X_1000600 . 3      0.22602 /_   79.0   0.94175     0.416
S6X_1000600 . 3      0.22602 /_   79.0   0.94175     0.416
S7X_1000600 . 3      0.22602 /_   79.0   0.94175     0.416
S8X_1000600 . 3      0.22602 /_   79.0   0.94175     0.416
S9X_1000600 . 3      0.22602 /_   79.0   0.94175     0.416
X_1000602 ... 3      0.22625 /_   78.9   0.94268     0.416
S1X_1000602 . 3      0.22599 /_   79.0   0.94162     0.416
S2X_1000602 . 3      0.22599 /_   79.0   0.94162     0.416
S3X_1000602 . 3      0.22599 /_   79.0   0.94162     0.416
S4X_1000602 . 3      0.22599 /_   79.0   0.94162     0.416
S5X_1000602 . 3      0.22599 /_   79.0   0.94162     0.416
S6X_1000602 . 3      0.22599 /_   79.0   0.94162     0.416
S7X_1000602 . 3      0.22599 /_   79.0   0.94162     0.416
S8X_1000602 . 3      0.22599 /_   79.0   0.94162     0.416
X_1000601 ... 3      0.22625 /_   78.9   0.94269     0.416
S1X_1000601 . 3      0.22599 /_   79.0   0.94162     0.416
S2X_1000601 . 3      0.22599 /_   79.0   0.94162     0.416
S3X_1000601 . 3      0.22599 /_   79.0   0.94162     0.416
S4X_1000601 . 3      0.22599 /_   79.0   0.94162     0.416
S5X_1000601 . 3      0.22599 /_   79.0   0.94162     0.416
S6X_1000601 . 3      0.22599 /_   79.0   0.94162     0.416
S7X_1000601 . 3      0.22599 /_   79.0   0.94162     0.416
S8X_1000601 . 3      0.22599 /_   79.0   0.94162     0.416
X_1000603 ... 2      0.22812 /_ -160.8   0.95047     0.416
S1X_1000603 . 2      0.22769 /_ -160.8   0.94869     0.416
S2X_1000603 . 2      0.22769 /_ -160.8   0.94869     0.416
S3X_1000603 . 2      0.22769 /_ -160.8   0.94869     0.416
S4X_1000603 . 2      0.22769 /_ -160.8   0.94869     0.416
S5X_1000603 . 2      0.22769 /_ -160.8   0.94869     0.416
S6X_1000603 . 2      0.22769 /_ -160.8   0.94869     0.416
S7X_1000603 . 2      0.22769 /_ -160.8   0.94869     0.416
X_1000604 ... 2       0.2281 /_ -160.8   0.95041     0.416
S1X_1000604 . 2       0.2279 /_ -160.8   0.94958     0.416
S2X_1000604 . 2       0.2279 /_ -160.8   0.94958     0.416
S3X_1000604 . 2       0.2279 /_ -160.8   0.94958     0.416
S4X_1000604 . 2       0.2279 /_ -160.8   0.94958     0.416
S5X_1000604 . 2       0.2279 /_ -160.8   0.94958     0.416
S6X_1000604 . 2       0.2279 /_ -160.8   0.94958     0.416
S7X_1000604 . 2       0.2279 /_ -160.8   0.94958     0.416
S8X_1000604 . 2       0.2279 /_ -160.8   0.94958     0.416
S9X_1000604 . 2       0.2279 /_ -160.8   0.94958     0.416
S10X_1000604  2       0.2279 /_ -160.8   0.94958     0.416
S11X_1000604  2       0.2279 /_ -160.8   0.94958     0.416
S12X_1000604  2       0.2279 /_ -160.8   0.94958     0.416
S13X_1000604  2       0.2279 /_ -160.8   0.94958     0.416
S14X_1000604  2       0.2279 /_ -160.8   0.94958     0.416
S15X_1000604  2       0.2279 /_ -160.8   0.94958     0.416
X_1000605 ... 2      0.22797 /_ -160.9   0.94986     0.416
S1X_1000605 . 2      0.22761 /_ -160.9   0.94835     0.416
S2X_1000605 . 2      0.22761 /_ -160.9   0.94835     0.416
S3X_1000605 . 2      0.22761 /_ -160.9   0.94835     0.416
S4X_1000605 . 2      0.22761 /_ -160.9   0.94835     0.416
S5X_1000605 . 2      0.22761 /_ -160.9   0.94835     0.416
S6X_1000605 . 2      0.22761 /_ -160.9   0.94835     0.416
S7X_1000605 . 2      0.22761 /_ -160.9   0.94835     0.416
S8X_1000605 . 2      0.22761 /_ -160.9   0.94835     0.416
S9X_1000605 . 2      0.22761 /_ -160.9   0.94835     0.416
S10X_1000605  2      0.22761 /_ -160.9   0.94835     0.416
S11X_1000605  2      0.22761 /_ -160.9   0.94835     0.416
X_1000606 ... 2      0.22808 /_ -160.8    0.9503     0.416
S1X_1000606 . 2      0.22783 /_ -160.8   0.94926     0.416
S2X_1000606 . 2      0.22783 /_ -160.8   0.94926     0.416
S3X_1000606 . 2      0.22783 /_ -160.8   0.94926     0.416
S4X_1000606 . 2      0.22783 /_ -160.8   0.94926     0.416
S5X_1000606 . 2      0.22783 /_ -160.8   0.94926     0.416
S6X_1000606 . 2      0.22783 /_ -160.8   0.94926     0.416
S7X_1000606 . 2      0.22783 /_ -160.8   0.94926     0.416
S8X_1000606 . 2      0.22783 /_ -160.8   0.94926     0.416
S9X_1000606 . 2      0.22783 /_ -160.8   0.94926     0.416
S10X_1000606  2      0.22783 /_ -160.8   0.94926     0.416
S11X_1000606  2      0.22783 /_ -160.8   0.94926     0.416
S12X_1000606  2      0.22783 /_ -160.8   0.94926     0.416
X_1000607 ... 2       0.2279 /_ -160.9   0.94955     0.416
S1X_1000607 . 2      0.22765 /_ -160.9   0.94852     0.416
S2X_1000607 . 2      0.22765 /_ -160.9   0.94852     0.416
S3X_1000607 . 2      0.22765 /_ -160.9   0.94852     0.416
S4X_1000607 . 2      0.22765 /_ -160.9   0.94852     0.416
S5X_1000607 . 2      0.22765 /_ -160.9   0.94852     0.416
S6X_1000607 . 2      0.22765 /_ -160.9   0.94852     0.416
S7X_1000607 . 2      0.22765 /_ -160.9   0.94852     0.416
S8X_1000607 . 2      0.22765 /_ -160.9   0.94852     0.416
X_1001933 ... 1      0.11292 /_  -71.9   0.94029     0.208        1-2    0.19557 /_  -41.8   0.94023
   -          2      0.11303 /_  168.3   0.94124     0.208        2-3    0.19599 /_ -161.8   0.94227
   -          3      0.11316 /_   48.2   0.94231     0.208        3-1     0.1958 /_   78.1   0.94135
S1X_1001933 . 1       0.1094 /_  -71.8   0.91097     0.208        1-2    0.18967 /_  -41.7   0.91188
   -          2       0.1098 /_  168.4   0.91436     0.208        2-3    0.19058 /_ -161.7   0.91627
   -          3      0.11003 /_   48.1   0.91623     0.208        3-1    0.18999 /_   78.1   0.91341
S2X_1001933 . 1       0.1094 /_  -71.8   0.91097     0.208        1-2    0.18967 /_  -41.7   0.91188
   -          2       0.1098 /_  168.4   0.91436     0.208        2-3    0.19058 /_ -161.7   0.91627
   -          3      0.11003 /_   48.1   0.91623     0.208        3-1    0.18999 /_   78.1   0.91341
S3X_1001933 . 1       0.1094 /_  -71.8   0.91097     0.208        1-2    0.18967 /_  -41.7   0.91188
   -          2       0.1098 /_  168.4   0.91436     0.208        2-3    0.19058 /_ -161.7   0.91627
   -          3      0.11003 /_   48.1   0.91623     0.208        3-1    0.18999 /_   78.1   0.91341
X_1000198 ... 1      0.22717 /_  -41.0   0.94651     0.416
S1X_1000198 . 1      0.22679 /_  -41.0   0.94492     0.416
X_1000548 ... 1      0.22728 /_  -41.2   0.94699     0.416
S1X_1000548 . 1      0.22538 /_  -41.2   0.93906     0.416
X_1000069 ... 1      0.11323 /_  -71.6   0.94292     0.208        1-2    0.19612 /_  -41.6   0.94286
   -          2      0.11335 /_  168.5   0.94387     0.208        2-3    0.19654 /_ -161.6   0.94491
   -          3      0.11348 /_   48.4   0.94496     0.208        3-1    0.19635 /_   78.3   0.94398
S1X_1000069 . 1       0.1127 /_  -71.6    0.9385     0.208        1-2    0.19523 /_  -41.5    0.9386
   -          2      0.11286 /_  168.5   0.93982     0.208        2-3    0.19573 /_ -161.6   0.94101
   -          3      0.11301 /_   48.4   0.94106     0.208        3-1    0.19547 /_   78.3   0.93977
S2X_1000069 . 1       0.1127 /_  -71.6    0.9385     0.208        1-2    0.19523 /_  -41.5    0.9386
   -          2      0.11286 /_  168.5   0.93982     0.208        2-3    0.19573 /_ -161.6   0.94101
   -          3      0.11301 /_   48.4   0.94106     0.208        3-1    0.19547 /_   78.3   0.93977
S3X_1000069 . 1       0.1127 /_  -71.6    0.9385     0.208        1-2    0.19523 /_  -41.5    0.9386
   -          2      0.11286 /_  168.5   0.93982     0.208        2-3    0.19573 /_ -161.6   0.94101
   -          3      0.11301 /_   48.4   0.94106     0.208        3-1    0.19547 /_   78.3   0.93977
S4X_1000069 . 1       0.1127 /_  -71.6    0.9385     0.208        1-2    0.19523 /_  -41.5    0.9386
   -          2      0.11286 /_  168.5   0.93982     0.208        2-3    0.19573 /_ -161.6   0.94101
   -          3      0.11301 /_   48.4   0.94106     0.208        3-1    0.19547 /_   78.3   0.93977
S5X_1000069 . 1       0.1127 /_  -71.6    0.9385     0.208        1-2    0.19523 /_  -41.5    0.9386
   -          2      0.11286 /_  168.5   0.93982     0.208        2-3    0.19573 /_ -161.6   0.94101
   -          3      0.11301 /_   48.4   0.94106     0.208        3-1    0.19547 /_   78.3   0.93977
S6X_1000069 . 1       0.1127 /_  -71.6    0.9385     0.208        1-2    0.19523 /_  -41.5    0.9386
   -          2      0.11286 /_  168.5   0.93982     0.208        2-3    0.19573 /_ -161.6   0.94101
   -          3      0.11301 /_   48.4   0.94106     0.208        3-1    0.19547 /_   78.3   0.93977
X_1000531 ... 1      0.22752 /_  -41.0   0.94799     0.416
S1X_1000531 . 1      0.22726 /_  -41.0    0.9469     0.416
S2X_1000531 . 1      0.22726 /_  -41.0    0.9469     0.416
S3X_1000531 . 1      0.22726 /_  -41.0    0.9469     0.416
S4X_1000531 . 1      0.22726 /_  -41.0    0.9469     0.416
S5X_1000531 . 1      0.22726 /_  -41.0    0.9469     0.416
S6X_1000531 . 1      0.22726 /_  -41.0    0.9469     0.416
S7X_1000531 . 1      0.22726 /_  -41.0    0.9469     0.416
S8X_1000531 . 1      0.22726 /_  -41.0    0.9469     0.416
S9X_1000531 . 1      0.22726 /_  -41.0    0.9469     0.416
S10X_1000531  1      0.22726 /_  -41.0    0.9469     0.416
S11X_1000531  1      0.22726 /_  -41.0    0.9469     0.416
X_1000533 ... 1      0.22752 /_  -41.0   0.94797     0.416
S1X_1000533 . 1      0.22726 /_  -41.0   0.94688     0.416
S2X_1000533 . 1      0.22726 /_  -41.0   0.94688     0.416
S3X_1000533 . 1      0.22726 /_  -41.0   0.94688     0.416
S4X_1000533 . 1      0.22726 /_  -41.0   0.94688     0.416
S5X_1000533 . 1      0.22726 /_  -41.0   0.94688     0.416
S6X_1000533 . 1      0.22726 /_  -41.0   0.94688     0.416
S7X_1000533 . 1      0.22726 /_  -41.0   0.94688     0.416
S8X_1000533 . 1      0.22726 /_  -41.0   0.94688     0.416
S9X_1000533 . 1      0.22726 /_  -41.0   0.94688     0.416
S10X_1000533  1      0.22726 /_  -41.0   0.94688     0.416
S11X_1000533  1      0.22726 /_  -41.0   0.94688     0.416
X_1000532 ... 1      0.22741 /_  -41.1   0.94753     0.416
S1X_1000532 . 1      0.22706 /_  -41.1   0.94608     0.416
S2X_1000532 . 1      0.22706 /_  -41.1   0.94608     0.416
S3X_1000532 . 1      0.22706 /_  -41.1   0.94608     0.416
S4X_1000532 . 1      0.22706 /_  -41.1   0.94608     0.416
S5X_1000532 . 1      0.22706 /_  -41.1   0.94608     0.416
S6X_1000532 . 1      0.22706 /_  -41.1   0.94608     0.416
S7X_1000532 . 1      0.22706 /_  -41.1   0.94608     0.416
S8X_1000532 . 1      0.22706 /_  -41.1   0.94608     0.416
S9X_1000532 . 1      0.22706 /_  -41.1   0.94608     0.416
S10X_1000532  1      0.22706 /_  -41.1   0.94608     0.416
S11X_1000532  1      0.22706 /_  -41.1   0.94608     0.416
X_1000582 ... 1      0.22734 /_  -41.1   0.94725     0.416
S1X_1000582 . 1      0.22707 /_  -41.1   0.94612     0.416
S2X_1000582 . 1      0.22707 /_  -41.1   0.94612     0.416
S3X_1000582 . 1      0.22707 /_  -41.1   0.94612     0.416
S4X_1000582 . 1      0.22707 /_  -41.1   0.94612     0.416
S5X_1000582 . 1      0.22707 /_  -41.1   0.94612     0.416
S6X_1000582 . 1      0.22707 /_  -41.1   0.94612     0.416
S7X_1000582 . 1      0.22707 /_  -41.1   0.94612     0.416
X_1000581 ... 1      0.22733 /_  -41.1   0.94721     0.416
S1X_1000581 . 1       0.2271 /_  -41.1   0.94621     0.416
S2X_1000581 . 1       0.2271 /_  -41.1   0.94621     0.416
S3X_1000581 . 1       0.2271 /_  -41.1   0.94621     0.416
S4X_1000581 . 1       0.2271 /_  -41.1   0.94621     0.416
S5X_1000581 . 1       0.2271 /_  -41.1   0.94621     0.416
...